MODEL 1
REMARK VINA RESULT:      -9.1      0.000      0.000
REMARK  Name = 
REMARK  3 active torsions:
REMARK  status: ('A' for Active; 'I' for Inactive)
REMARK    1  A    between atoms: C_9  and  C_10
REMARK    2  A    between atoms: C_14  and  C_15
REMARK    3  A    between atoms: C_17  and  C_18
REMARK                            x       y       z     vdW  Elec       q    Type
REMARK                         _______ _______ _______ _____ _____    ______ ____
ROOT
ATOM      1  C   UNL     1      48.572  28.530  97.019  0.00  0.00    +0.000 A 
ATOM      2  C   UNL     1      47.582  27.857  96.315  0.00  0.00    +0.000 A 
ATOM      3  C   UNL     1      46.354  27.571  96.899  0.00  0.00    +0.000 A 
ATOM      4  C   UNL     1      46.290  27.665  98.283  0.00  0.00    +0.000 A 
ATOM      5  C   UNL     1      47.426  27.871  99.057  0.00  0.00    +0.000 A 
ATOM      6  C   UNL     1      48.509  28.434  98.392  0.00  0.00    +0.000 A 
ENDROOT
BRANCH   1  15
ATOM      7  C   UNL     1      50.260  33.404  98.537  0.00  0.00    +0.000 C 
ATOM      8  N   UNL     1      51.126  32.584  97.712  0.00  0.00    +0.000 N 
ATOM      9  C   UNL     1      52.455  32.392  97.903  0.00  0.00    +0.000 A 
ATOM     10  O   UNL     1      53.261  32.887  98.930  0.00  0.00    +0.000 OA
ATOM     11  N   UNL     1      52.854  31.688  96.823  0.00  0.00    +0.000 NA
ATOM     12  C   UNL     1      51.775  30.982  96.416  0.00  0.00    +0.000 A 
ATOM     13  N   UNL     1      51.604  29.935  95.597  0.00  0.00    +0.000 NA
ATOM     14  C   UNL     1      50.457  29.213  95.566  0.00  0.00    +0.000 A 
ATOM     15  C   UNL     1      49.398  29.570  96.392  0.00  0.00    +0.000 A 
ATOM     16  C   UNL     1      49.472  30.828  96.954  0.00  0.00    +0.000 A 
ATOM     17  C   UNL     1      50.638  31.585  96.938  0.00  0.00    +0.000 A 
ENDBRANCH   1  15
BRANCH   5  18
ATOM     18  C   UNL     1      47.544  27.343 100.421  0.00  0.00    +0.000 A 
ATOM     19  N   UNL     1      48.660  27.003 101.099  0.00  0.00    +0.000 NA
ATOM     20  C   UNL     1      48.358  26.938 102.401  0.00  0.00    +0.000 A 
ATOM     21  N   UNL     1      47.177  27.592 102.527  0.00  0.00    +0.000 NA
ATOM     22  O   UNL     1      46.645  27.607 101.344  0.00  0.00    +0.000 OA
BRANCH  20  23
ATOM     23  C   UNL     1      49.027  26.244 103.495  0.00  0.00    +0.000 A 
ATOM     24  C   UNL     1      50.214  26.705 104.050  0.00  0.00    +0.000 A 
ATOM     25  C   UNL     1      51.165  25.808 104.520  0.00  0.00    +0.000 A 
ATOM     26  C   UNL     1      50.860  24.476 104.632  0.00  0.00    +0.000 A 
ATOM     27  C   UNL     1      49.548  24.070 104.449  0.00  0.00    +0.000 A 
ATOM     28  C   UNL     1      48.688  24.927 103.775  0.00  0.00    +0.000 A 
ATOM     29  C   UNL     1      49.205  22.628 104.652  0.00  0.00    +0.000 C 
ATOM     30  C   UNL     1      49.854  22.163 105.948  0.00  0.00    +0.000 C 
ATOM     31  C   UNL     1      51.331  22.326 105.824  0.00  0.00    +0.000 C 
ATOM     32  O   UNL     1      52.058  21.748 106.677  0.00  0.00    +0.000 OA
ATOM     33  N   UNL     1      51.778  23.529 105.189  0.00  0.00    +0.000 NA
ENDBRANCH  20  23
ENDBRANCH   5  18
TORSDOF 3
ENDMDL
MODEL 2
REMARK VINA RESULT:      -9.0      3.617      4.490
REMARK  Name = 
REMARK  3 active torsions:
REMARK  status: ('A' for Active; 'I' for Inactive)
REMARK    1  A    between atoms: C_9  and  C_10
REMARK    2  A    between atoms: C_14  and  C_15
REMARK    3  A    between atoms: C_17  and  C_18
REMARK                            x       y       z     vdW  Elec       q    Type
REMARK                         _______ _______ _______ _____ _____    ______ ____
ROOT
ATOM      1  C   UNL     1      47.248  31.012  97.957  0.00  0.00    +0.000 A 
ATOM      2  C   UNL     1      48.388  30.858  97.178  0.00  0.00    +0.000 A 
ATOM      3  C   UNL     1      48.880  29.596  96.870  0.00  0.00    +0.000 A 
ATOM      4  C   UNL     1      48.413  28.543  97.644  0.00  0.00    +0.000 A 
ATOM      5  C   UNL     1      47.623  28.754  98.768  0.00  0.00    +0.000 A 
ATOM      6  C   UNL     1      46.953  29.971  98.809  0.00  0.00    +0.000 A 
ENDROOT
BRANCH   1  15
ATOM      7  C   UNL     1      42.970  32.951 100.572  0.00  0.00    +0.000 C 
ATOM      8  N   UNL     1      43.732  33.838  99.714  0.00  0.00    +0.000 N 
ATOM      9  C   UNL     1      44.118  35.100 100.022  0.00  0.00    +0.000 A 
ATOM     10  O   UNL     1      43.917  35.800 101.213  0.00  0.00    +0.000 OA
ATOM     11  N   UNL     1      44.664  35.574  98.882  0.00  0.00    +0.000 NA
ATOM     12  C   UNL     1      45.147  34.498  98.222  0.00  0.00    +0.000 A 
ATOM     13  N   UNL     1      46.003  34.339  97.202  0.00  0.00    +0.000 NA
ATOM     14  C   UNL     1      46.559  33.142  96.896  0.00  0.00    +0.000 A 
ATOM     15  C   UNL     1      46.225  32.018  97.644  0.00  0.00    +0.000 A 
ATOM     16  C   UNL     1      45.106  32.138  98.442  0.00  0.00    +0.000 A 
ATOM     17  C   UNL     1      44.509  33.365  98.710  0.00  0.00    +0.000 A 
ENDBRANCH   1  15
BRANCH   5  18
ATOM     18  C   UNL     1      47.658  27.849  99.923  0.00  0.00    +0.000 A 
ATOM     19  N   UNL     1      48.563  27.793 100.922  0.00  0.00    +0.000 NA
ATOM     20  C   UNL     1      48.026  27.109 101.939  0.00  0.00    +0.000 A 
ATOM     21  N   UNL     1      46.694  27.084 101.689  0.00  0.00    +0.000 NA
ATOM     22  O   UNL     1      46.561  27.321 100.420  0.00  0.00    +0.000 OA
BRANCH  20  23
ATOM     23  C   UNL     1      48.661  26.411 103.050  0.00  0.00    +0.000 A 
ATOM     24  C   UNL     1      49.718  26.961 103.765  0.00  0.00    +0.000 A 
ATOM     25  C   UNL     1      50.720  26.146 104.276  0.00  0.00    +0.000 A 
ATOM     26  C   UNL     1      50.574  24.783 104.262  0.00  0.00    +0.000 A 
ATOM     27  C   UNL     1      49.349  24.243 103.907  0.00  0.00    +0.000 A 
ATOM     28  C   UNL     1      48.462  25.046 103.201  0.00  0.00    +0.000 A 
ATOM     29  C   UNL     1      49.170  22.759 103.971  0.00  0.00    +0.000 C 
ATOM     30  C   UNL     1      49.736  22.270 105.297  0.00  0.00    +0.000 C 
ATOM     31  C   UNL     1      51.185  22.614 105.351  0.00  0.00    +0.000 C 
ATOM     32  O   UNL     1      51.887  22.058 106.238  0.00  0.00    +0.000 OA
ATOM     33  N   UNL     1      51.541  23.908 104.853  0.00  0.00    +0.000 NA
ENDBRANCH  20  23
ENDBRANCH   5  18
TORSDOF 3
ENDMDL
MODEL 3
REMARK VINA RESULT:      -8.6      6.628      9.629
REMARK  Name = 
REMARK  3 active torsions:
REMARK  status: ('A' for Active; 'I' for Inactive)
REMARK    1  A    between atoms: C_9  and  C_10
REMARK    2  A    between atoms: C_14  and  C_15
REMARK    3  A    between atoms: C_17  and  C_18
REMARK                            x       y       z     vdW  Elec       q    Type
REMARK                         _______ _______ _______ _____ _____    ______ ____
ROOT
ATOM      1  C   UNL     1      47.768  24.644 101.494  0.00  0.00    +0.000 A 
ATOM      2  C   UNL     1      46.904  25.463 100.780  0.00  0.00    +0.000 A 
ATOM      3  C   UNL     1      45.661  25.004 100.362  0.00  0.00    +0.000 A 
ATOM      4  C   UNL     1      45.474  23.629 100.375  0.00  0.00    +0.000 A 
ATOM      5  C   UNL     1      46.518  22.749 100.633  0.00  0.00    +0.000 A 
ATOM      6  C   UNL     1      47.599  23.288 101.319  0.00  0.00    +0.000 A 
ENDROOT
BRANCH   1  15
ATOM      7  C   UNL     1      48.874  22.766 106.409  0.00  0.00    +0.000 C 
ATOM      8  N   UNL     1      49.879  23.542 105.710  0.00  0.00    +0.000 N 
ATOM      9  C   UNL     1      51.197  23.238 105.622  0.00  0.00    +0.000 A 
ATOM     10  O   UNL     1      51.863  22.121 106.130  0.00  0.00    +0.000 OA
ATOM     11  N   UNL     1      51.751  24.307 105.011  0.00  0.00    +0.000 NA
ATOM     12  C   UNL     1      50.780  24.842 104.237  0.00  0.00    +0.000 A 
ATOM     13  N   UNL     1      50.776  25.718 103.224  0.00  0.00    +0.000 NA
ATOM     14  C   UNL     1      49.705  25.887 102.410  0.00  0.00    +0.000 A 
ATOM     15  C   UNL     1      48.550  25.146 102.631  0.00  0.00    +0.000 A 
ATOM     16  C   UNL     1      48.462  24.525 103.861  0.00  0.00    +0.000 A 
ATOM     17  C   UNL     1      49.552  24.401 104.714  0.00  0.00    +0.000 A 
ENDBRANCH   1  15
BRANCH   5  18
ATOM     18  C   UNL     1      46.567  21.406 100.043  0.00  0.00    +0.000 A 
ATOM     19  N   UNL     1      47.509  20.874  99.236  0.00  0.00    +0.000 NA
ATOM     20  C   UNL     1      47.368  19.543  99.246  0.00  0.00    +0.000 A 
ATOM     21  N   UNL     1      46.596  19.272 100.327  0.00  0.00    +0.000 NA
ATOM     22  O   UNL     1      45.981  20.377 100.616  0.00  0.00    +0.000 OA
BRANCH  20  23
ATOM     23  C   UNL     1      47.810  18.538  98.286  0.00  0.00    +0.000 A 
ATOM     24  C   UNL     1      47.079  17.383  98.032  0.00  0.00    +0.000 A 
ATOM     25  C   UNL     1      47.730  16.194  97.729  0.00  0.00    +0.000 A 
ATOM     26  C   UNL     1      49.077  16.189  97.475  0.00  0.00    +0.000 A 
ATOM     27  C   UNL     1      49.738  17.399  97.342  0.00  0.00    +0.000 A 
ATOM     28  C   UNL     1      49.131  18.535  97.862  0.00  0.00    +0.000 A 
ATOM     29  C   UNL     1      51.192  17.390  96.985  0.00  0.00    +0.000 C 
ATOM     30  C   UNL     1      51.391  16.411  95.837  0.00  0.00    +0.000 C 
ATOM     31  C   UNL     1      50.967  15.056  96.289  0.00  0.00    +0.000 C 
ATOM     32  O   UNL     1      51.309  14.068  95.584  0.00  0.00    +0.000 OA
ATOM     33  N   UNL     1      49.773  15.003  97.077  0.00  0.00    +0.000 NA
ENDBRANCH  20  23
ENDBRANCH   5  18
TORSDOF 3
ENDMDL
MODEL 4
REMARK VINA RESULT:      -8.6      3.414      5.852
REMARK  Name = 
REMARK  3 active torsions:
REMARK  status: ('A' for Active; 'I' for Inactive)
REMARK    1  A    between atoms: C_9  and  C_10
REMARK    2  A    between atoms: C_14  and  C_15
REMARK    3  A    between atoms: C_17  and  C_18
REMARK                            x       y       z     vdW  Elec       q    Type
REMARK                         _______ _______ _______ _____ _____    ______ ____
ROOT
ATOM      1  C   UNL     1      46.265  28.178  97.107  0.00  0.00    +0.000 A 
ATOM      2  C   UNL     1      46.404  29.558  97.182  0.00  0.00    +0.000 A 
ATOM      3  C   UNL     1      47.387  30.138  97.973  0.00  0.00    +0.000 A 
ATOM      4  C   UNL     1      47.972  29.321  98.931  0.00  0.00    +0.000 A 
ATOM      5  C   UNL     1      47.493  28.044  99.197  0.00  0.00    +0.000 A 
ATOM      6  C   UNL     1      46.742  27.463  98.182  0.00  0.00    +0.000 A 
ENDROOT
BRANCH   1  15
ATOM      7  C   UNL     1      44.813  23.175  95.779  0.00  0.00    +0.000 C 
ATOM      8  N   UNL     1      44.311  24.285  94.994  0.00  0.00    +0.000 N 
ATOM      9  C   UNL     1      43.031  24.447  94.578  0.00  0.00    +0.000 A 
ATOM     10  O   UNL     1      41.927  23.633  94.837  0.00  0.00    +0.000 OA
ATOM     11  N   UNL     1      43.071  25.528  93.771  0.00  0.00    +0.000 NA
ATOM     12  C   UNL     1      44.098  26.288  94.213  0.00  0.00    +0.000 A 
ATOM     13  N   UNL     1      44.468  27.560  94.011  0.00  0.00    +0.000 NA
ATOM     14  C   UNL     1      45.380  28.188  94.793  0.00  0.00    +0.000 A 
ATOM     15  C   UNL     1      45.982  27.496  95.837  0.00  0.00    +0.000 A 
ATOM     16  C   UNL     1      45.847  26.122  95.805  0.00  0.00    +0.000 A 
ATOM     17  C   UNL     1      44.945  25.482  94.963  0.00  0.00    +0.000 A 
ENDBRANCH   1  15
BRANCH   5  18
ATOM     18  C   UNL     1      47.594  27.438 100.530  0.00  0.00    +0.000 A 
ATOM     19  N   UNL     1      48.703  27.163 101.249  0.00  0.00    +0.000 NA
ATOM     20  C   UNL     1      48.343  26.980 102.525  0.00  0.00    +0.000 A 
ATOM     21  N   UNL     1      47.097  27.505 102.623  0.00  0.00    +0.000 NA
ATOM     22  O   UNL     1      46.627  27.548 101.415  0.00  0.00    +0.000 OA
BRANCH  20  23
ATOM     23  C   UNL     1      49.023  26.282 103.609  0.00  0.00    +0.000 A 
ATOM     24  C   UNL     1      50.235  26.719 104.128  0.00  0.00    +0.000 A 
ATOM     25  C   UNL     1      51.175  25.804 104.584  0.00  0.00    +0.000 A 
ATOM     26  C   UNL     1      50.840  24.481 104.720  0.00  0.00    +0.000 A 
ATOM     27  C   UNL     1      49.514  24.107 104.577  0.00  0.00    +0.000 A 
ATOM     28  C   UNL     1      48.658  24.978 103.914  0.00  0.00    +0.000 A 
ATOM     29  C   UNL     1      49.141  22.676 104.805  0.00  0.00    +0.000 C 
ATOM     30  C   UNL     1      49.811  22.211 106.090  0.00  0.00    +0.000 C 
ATOM     31  C   UNL     1      51.287  22.334 105.927  0.00  0.00    +0.000 C 
ATOM     32  O   UNL     1      52.022  21.748 106.767  0.00  0.00    +0.000 OA
ATOM     33  N   UNL     1      51.748  23.518 105.265  0.00  0.00    +0.000 NA
ENDBRANCH  20  23
ENDBRANCH   5  18
TORSDOF 3
ENDMDL
MODEL 5
REMARK VINA RESULT:      -8.5      3.417      5.263
REMARK  Name = 
REMARK  3 active torsions:
REMARK  status: ('A' for Active; 'I' for Inactive)
REMARK    1  A    between atoms: C_9  and  C_10
REMARK    2  A    between atoms: C_14  and  C_15
REMARK    3  A    between atoms: C_17  and  C_18
REMARK                            x       y       z     vdW  Elec       q    Type
REMARK                         _______ _______ _______ _____ _____    ______ ____
ROOT
ATOM      1  C   UNL     1      45.976  27.445  97.112  0.00  0.00    +0.000 A 
ATOM      2  C   UNL     1      46.025  28.829  97.012  0.00  0.00    +0.000 A 
ATOM      3  C   UNL     1      46.985  29.564  97.696  0.00  0.00    +0.000 A 
ATOM      4  C   UNL     1      47.642  28.912  98.730  0.00  0.00    +0.000 A 
ATOM      5  C   UNL     1      47.253  27.652  99.167  0.00  0.00    +0.000 A 
ATOM      6  C   UNL     1      46.521  26.902  98.253  0.00  0.00    +0.000 A 
ENDROOT
BRANCH   1  15
ATOM      7  C   UNL     1      49.011  25.503  93.123  0.00  0.00    +0.000 C 
ATOM      8  N   UNL     1      47.919  24.697  93.631  0.00  0.00    +0.000 N 
ATOM      9  C   UNL     1      47.975  23.374  93.919  0.00  0.00    +0.000 A 
ATOM     10  O   UNL     1      49.075  22.517  93.836  0.00  0.00    +0.000 OA
ATOM     11  N   UNL     1      46.703  23.037  94.216  0.00  0.00    +0.000 NA
ATOM     12  C   UNL     1      46.123  24.156  94.704  0.00  0.00    +0.000 A 
ATOM     13  N   UNL     1      45.000  24.396  95.395  0.00  0.00    +0.000 NA
ATOM     14  C   UNL     1      44.769  25.574  96.025  0.00  0.00    +0.000 A 
ATOM     15  C   UNL     1      45.712  26.592  95.945  0.00  0.00    +0.000 A 
ATOM     16  C   UNL     1      46.671  26.448  94.963  0.00  0.00    +0.000 A 
ATOM     17  C   UNL     1      46.868  25.251  94.284  0.00  0.00    +0.000 A 
ENDBRANCH   1  15
BRANCH   5  18
ATOM     18  C   UNL     1      47.421  27.225 100.561  0.00  0.00    +0.000 A 
ATOM     19  N   UNL     1      48.537  26.782 101.177  0.00  0.00    +0.000 NA
ATOM     20  C   UNL     1      48.350  26.869 102.500  0.00  0.00    +0.000 A 
ATOM     21  N   UNL     1      47.288  27.696 102.657  0.00  0.00    +0.000 NA
ATOM     22  O   UNL     1      46.657  27.692 101.524  0.00  0.00    +0.000 OA
BRANCH  20  23
ATOM     23  C   UNL     1      49.014  26.176 103.597  0.00  0.00    +0.000 A 
ATOM     24  C   UNL     1      50.176  26.660 104.186  0.00  0.00    +0.000 A 
ATOM     25  C   UNL     1      51.140  25.782 104.663  0.00  0.00    +0.000 A 
ATOM     26  C   UNL     1      50.870  24.441 104.748  0.00  0.00    +0.000 A 
ATOM     27  C   UNL     1      49.574  24.002 104.530  0.00  0.00    +0.000 A 
ATOM     28  C   UNL     1      48.706  24.846 103.850  0.00  0.00    +0.000 A 
ATOM     29  C   UNL     1      49.267  22.548 104.703  0.00  0.00    +0.000 C 
ATOM     30  C   UNL     1      49.900  22.081 106.006  0.00  0.00    +0.000 C 
ATOM     31  C   UNL     1      51.373  22.286 105.918  0.00  0.00    +0.000 C 
ATOM     32  O   UNL     1      52.098  21.715 106.778  0.00  0.00    +0.000 OA
ATOM     33  N   UNL     1      51.801  23.510 105.311  0.00  0.00    +0.000 NA
ENDBRANCH  20  23
ENDBRANCH   5  18
TORSDOF 3
ENDMDL
MODEL 6
REMARK VINA RESULT:      -8.5      7.201     10.178
REMARK  Name = 
REMARK  3 active torsions:
REMARK  status: ('A' for Active; 'I' for Inactive)
REMARK    1  A    between atoms: C_9  and  C_10
REMARK    2  A    between atoms: C_14  and  C_15
REMARK    3  A    between atoms: C_17  and  C_18
REMARK                            x       y       z     vdW  Elec       q    Type
REMARK                         _______ _______ _______ _____ _____    ______ ____
ROOT
ATOM      1  C   UNL     1      47.768  24.525 101.500  0.00  0.00    +0.000 A 
ATOM      2  C   UNL     1      47.041  25.334 100.636  0.00  0.00    +0.000 A 
ATOM      3  C   UNL     1      45.777  24.962 100.197  0.00  0.00    +0.000 A 
ATOM      4  C   UNL     1      45.432  23.628 100.364  0.00  0.00    +0.000 A 
ATOM      5  C   UNL     1      46.352  22.681 100.795  0.00  0.00    +0.000 A 
ATOM      6  C   UNL     1      47.452  23.184 101.480  0.00  0.00    +0.000 A 
ENDROOT
BRANCH   1  15
ATOM      7  C   UNL     1      48.887  22.860 106.488  0.00  0.00    +0.000 C 
ATOM      8  N   UNL     1      49.885  23.618 105.758  0.00  0.00    +0.000 N 
ATOM      9  C   UNL     1      51.206  23.325 105.684  0.00  0.00    +0.000 A 
ATOM     10  O   UNL     1      51.883  22.236 106.238  0.00  0.00    +0.000 OA
ATOM     11  N   UNL     1      51.750  24.373 105.030  0.00  0.00    +0.000 NA
ATOM     12  C   UNL     1      50.774  24.866 104.235  0.00  0.00    +0.000 A 
ATOM     13  N   UNL     1      50.762  25.700 103.186  0.00  0.00    +0.000 NA
ATOM     14  C   UNL     1      49.691  25.824 102.365  0.00  0.00    +0.000 A 
ATOM     15  C   UNL     1      48.543  25.081 102.616  0.00  0.00    +0.000 A 
ATOM     16  C   UNL     1      48.459  24.509 103.870  0.00  0.00    +0.000 A 
ATOM     17  C   UNL     1      49.550  24.432 104.728  0.00  0.00    +0.000 A 
ENDBRANCH   1  15
BRANCH   5  18
ATOM     18  C   UNL     1      46.276  21.277 100.378  0.00  0.00    +0.000 A 
ATOM     19  N   UNL     1      45.372  20.339 100.734  0.00  0.00    +0.000 NA
ATOM     20  C   UNL     1      45.438  19.334  99.853  0.00  0.00    +0.000 A 
ATOM     21  N   UNL     1      46.106  19.837  98.786  0.00  0.00    +0.000 NA
ATOM     22  O   UNL     1      46.756  20.871  99.222  0.00  0.00    +0.000 OA
BRANCH  20  23
ATOM     23  C   UNL     1      45.019  17.943  99.971  0.00  0.00    +0.000 A 
ATOM     24  C   UNL     1      45.859  16.885  99.649  0.00  0.00    +0.000 A 
ATOM     25  C   UNL     1      45.341  15.719  99.098  0.00  0.00    +0.000 A 
ATOM     26  C   UNL     1      43.986  15.518  99.058  0.00  0.00    +0.000 A 
ATOM     27  C   UNL     1      43.157  16.398  99.736  0.00  0.00    +0.000 A 
ATOM     28  C   UNL     1      43.667  17.645 100.075  0.00  0.00    +0.000 A 
ATOM     29  C   UNL     1      41.685  16.130  99.758  0.00  0.00    +0.000 C 
ATOM     30  C   UNL     1      41.476  14.658 100.085  0.00  0.00    +0.000 C 
ATOM     31  C   UNL     1      42.131  13.838  99.026  0.00  0.00    +0.000 C 
ATOM     32  O   UNL     1      41.839  12.613  98.969  0.00  0.00    +0.000 OA
ATOM     33  N   UNL     1      43.410  14.299  98.578  0.00  0.00    +0.000 NA
ENDBRANCH  20  23
ENDBRANCH   5  18
TORSDOF 3
ENDMDL
MODEL 7
REMARK VINA RESULT:      -8.4      3.193      4.498
REMARK  Name = 
REMARK  3 active torsions:
REMARK  status: ('A' for Active; 'I' for Inactive)
REMARK    1  A    between atoms: C_9  and  C_10
REMARK    2  A    between atoms: C_14  and  C_15
REMARK    3  A    between atoms: C_17  and  C_18
REMARK                            x       y       z     vdW  Elec       q    Type
REMARK                         _______ _______ _______ _____ _____    ______ ____
ROOT
ATOM      1  C   UNL     1      46.192  28.401  97.235  0.00  0.00    +0.000 A 
ATOM      2  C   UNL     1      46.506  29.752  97.305  0.00  0.00    +0.000 A 
ATOM      3  C   UNL     1      47.596  30.197  98.042  0.00  0.00    +0.000 A 
ATOM      4  C   UNL     1      48.126  29.306  98.964  0.00  0.00    +0.000 A 
ATOM      5  C   UNL     1      47.505  28.097  99.255  0.00  0.00    +0.000 A 
ATOM      6  C   UNL     1      46.634  27.623  98.282  0.00  0.00    +0.000 A 
ENDROOT
BRANCH   1  15
ATOM      7  C   UNL     1      46.808  29.586  92.028  0.00  0.00    +0.000 C 
ATOM      8  N   UNL     1      46.780  28.195  92.434  0.00  0.00    +0.000 N 
ATOM      9  C   UNL     1      47.627  27.227  92.007  0.00  0.00    +0.000 A 
ATOM     10  O   UNL     1      48.715  27.349  91.139  0.00  0.00    +0.000 OA
ATOM     11  N   UNL     1      47.131  26.087  92.533  0.00  0.00    +0.000 NA
ATOM     12  C   UNL     1      46.490  26.446  93.668  0.00  0.00    +0.000 A 
ATOM     13  N   UNL     1      46.041  25.771  94.735  0.00  0.00    +0.000 NA
ATOM     14  C   UNL     1      45.683  26.385  95.889  0.00  0.00    +0.000 A 
ATOM     15  C   UNL     1      45.758  27.770  95.982  0.00  0.00    +0.000 A 
ATOM     16  C   UNL     1      45.886  28.446  94.786  0.00  0.00    +0.000 A 
ATOM     17  C   UNL     1      46.203  27.802  93.595  0.00  0.00    +0.000 A 
ENDBRANCH   1  15
BRANCH   5  18
ATOM     18  C   UNL     1      47.602  27.472 100.579  0.00  0.00    +0.000 A 
ATOM     19  N   UNL     1      48.708  27.194 101.301  0.00  0.00    +0.000 NA
ATOM     20  C   UNL     1      48.340  26.990 102.572  0.00  0.00    +0.000 A 
ATOM     21  N   UNL     1      47.091  27.504 102.670  0.00  0.00    +0.000 NA
ATOM     22  O   UNL     1      46.628  27.563 101.459  0.00  0.00    +0.000 OA
BRANCH  20  23
ATOM     23  C   UNL     1      49.018  26.279 103.650  0.00  0.00    +0.000 A 
ATOM     24  C   UNL     1      50.223  26.718 104.185  0.00  0.00    +0.000 A 
ATOM     25  C   UNL     1      51.166  25.803 104.634  0.00  0.00    +0.000 A 
ATOM     26  C   UNL     1      50.841  24.476 104.747  0.00  0.00    +0.000 A 
ATOM     27  C   UNL     1      49.519  24.094 104.587  0.00  0.00    +0.000 A 
ATOM     28  C   UNL     1      48.662  24.968 103.932  0.00  0.00    +0.000 A 
ATOM     29  C   UNL     1      49.155  22.657 104.791  0.00  0.00    +0.000 C 
ATOM     30  C   UNL     1      49.820  22.176 106.073  0.00  0.00    +0.000 C 
ATOM     31  C   UNL     1      51.296  22.314 105.923  0.00  0.00    +0.000 C 
ATOM     32  O   UNL     1      52.030  21.721 106.760  0.00  0.00    +0.000 OA
ATOM     33  N   UNL     1      51.753  23.511 105.284  0.00  0.00    +0.000 NA
ENDBRANCH  20  23
ENDBRANCH   5  18
TORSDOF 3
ENDMDL
MODEL 8
REMARK VINA RESULT:      -8.4      1.824      2.403
REMARK  Name = 
REMARK  3 active torsions:
REMARK  status: ('A' for Active; 'I' for Inactive)
REMARK    1  A    between atoms: C_9  and  C_10
REMARK    2  A    between atoms: C_14  and  C_15
REMARK    3  A    between atoms: C_17  and  C_18
REMARK                            x       y       z     vdW  Elec       q    Type
REMARK                         _______ _______ _______ _____ _____    ______ ____
ROOT
ATOM      1  C   UNL     1      48.863  29.427  97.551  0.00  0.00    +0.000 A 
ATOM      2  C   UNL     1      47.864  28.924  96.728  0.00  0.00    +0.000 A 
ATOM      3  C   UNL     1      46.618  28.582  97.238  0.00  0.00    +0.000 A 
ATOM      4  C   UNL     1      46.534  28.430  98.615  0.00  0.00    +0.000 A 
ATOM      5  C   UNL     1      47.663  28.455  99.425  0.00  0.00    +0.000 A 
ATOM      6  C   UNL     1      48.774  29.090  98.883  0.00  0.00    +0.000 A 
ENDROOT
BRANCH   1  15
ATOM      7  C   UNL     1      52.762  29.942  93.885  0.00  0.00    +0.000 C 
ATOM      8  N   UNL     1      51.894  31.072  94.153  0.00  0.00    +0.000 N 
ATOM      9  C   UNL     1      51.321  31.871  93.220  0.00  0.00    +0.000 A 
ATOM     10  O   UNL     1      51.395  31.768  91.830  0.00  0.00    +0.000 OA
ATOM     11  N   UNL     1      50.733  32.855  93.932  0.00  0.00    +0.000 NA
ATOM     12  C   UNL     1      50.425  32.316  95.133  0.00  0.00    +0.000 A 
ATOM     13  N   UNL     1      49.622  32.686  96.140  0.00  0.00    +0.000 NA
ATOM     14  C   UNL     1      49.253  31.836  97.129  0.00  0.00    +0.000 A 
ATOM     15  C   UNL     1      49.733  30.532  97.129  0.00  0.00    +0.000 A 
ATOM     16  C   UNL     1      50.808  30.288  96.298  0.00  0.00    +0.000 A 
ATOM     17  C   UNL     1      51.213  31.188  95.319  0.00  0.00    +0.000 A 
ENDBRANCH   1  15
BRANCH   5  18
ATOM     18  C   UNL     1      47.741  27.689 100.674  0.00  0.00    +0.000 A 
ATOM     19  N   UNL     1      48.813  27.474 101.465  0.00  0.00    +0.000 NA
ATOM     20  C   UNL     1      48.377  27.065 102.663  0.00  0.00    +0.000 A 
ATOM     21  N   UNL     1      47.062  27.391 102.695  0.00  0.00    +0.000 NA
ATOM     22  O   UNL     1      46.696  27.537 101.459  0.00  0.00    +0.000 OA
BRANCH  20  23
ATOM     23  C   UNL     1      49.061  26.324 103.716  0.00  0.00    +0.000 A 
ATOM     24  C   UNL     1      50.324  26.679 104.173  0.00  0.00    +0.000 A 
ATOM     25  C   UNL     1      51.220  25.702 104.587  0.00  0.00    +0.000 A 
ATOM     26  C   UNL     1      50.804  24.405 104.746  0.00  0.00    +0.000 A 
ATOM     27  C   UNL     1      49.450  24.122 104.670  0.00  0.00    +0.000 A 
ATOM     28  C   UNL     1      48.624  25.048 104.046  0.00  0.00    +0.000 A 
ATOM     29  C   UNL     1      48.991  22.721 104.924  0.00  0.00    +0.000 C 
ATOM     30  C   UNL     1      49.691  22.213 106.176  0.00  0.00    +0.000 C 
ATOM     31  C   UNL     1      51.162  22.235 105.940  0.00  0.00    +0.000 C 
ATOM     32  O   UNL     1      51.896  21.602 106.747  0.00  0.00    +0.000 OA
ATOM     33  N   UNL     1      51.670  23.383 105.251  0.00  0.00    +0.000 NA
ENDBRANCH  20  23
ENDBRANCH   5  18
TORSDOF 3
ENDMDL
MODEL 9
REMARK VINA RESULT:      -8.3      7.481      9.329
REMARK  Name = 
REMARK  3 active torsions:
REMARK  status: ('A' for Active; 'I' for Inactive)
REMARK    1  A    between atoms: C_9  and  C_10
REMARK    2  A    between atoms: C_14  and  C_15
REMARK    3  A    between atoms: C_17  and  C_18
REMARK                            x       y       z     vdW  Elec       q    Type
REMARK                         _______ _______ _______ _____ _____    ______ ____
ROOT
ATOM      1  C   UNL     1      48.310  23.551  99.775  0.00  0.00    +0.000 A 
ATOM      2  C   UNL     1      49.240  24.107  98.906  0.00  0.00    +0.000 A 
ATOM      3  C   UNL     1      49.260  23.763  97.560  0.00  0.00    +0.000 A 
ATOM      4  C   UNL     1      48.571  22.612  97.206  0.00  0.00    +0.000 A 
ATOM      5  C   UNL     1      48.027  21.760  98.159  0.00  0.00    +0.000 A 
ATOM      6  C   UNL     1      47.795  22.328  99.406  0.00  0.00    +0.000 A 
ENDROOT
BRANCH   1  15
ATOM      7  C   UNL     1      49.989  26.276 104.095  0.00  0.00    +0.000 C 
ATOM      8  N   UNL     1      48.862  26.783 103.336  0.00  0.00    +0.000 N 
ATOM      9  C   UNL     1      48.671  28.074 102.967  0.00  0.00    +0.000 A 
ATOM     10  O   UNL     1      49.509  29.169 103.185  0.00  0.00    +0.000 OA
ATOM     11  N   UNL     1      47.438  28.090 102.417  0.00  0.00    +0.000 NA
ATOM     12  C   UNL     1      47.234  26.851 101.917  0.00  0.00    +0.000 A 
ATOM     13  N   UNL     1      46.352  26.331 101.053  0.00  0.00    +0.000 NA
ATOM     14  C   UNL     1      46.523  25.114 100.480  0.00  0.00    +0.000 A 
ATOM     15  C   UNL     1      47.638  24.351 100.807  0.00  0.00    +0.000 A 
ATOM     16  C   UNL     1      48.329  24.748 101.934  0.00  0.00    +0.000 A 
ATOM     17  C   UNL     1      48.112  25.977 102.546  0.00  0.00    +0.000 A 
ENDBRANCH   1  15
BRANCH   5  18
ATOM     18  C   UNL     1      47.900  20.316  97.930  0.00  0.00    +0.000 A 
ATOM     19  N   UNL     1      48.866  19.374  97.942  0.00  0.00    +0.000 NA
ATOM     20  C   UNL     1      48.284  18.175  98.068  0.00  0.00    +0.000 A 
ATOM     21  N   UNL     1      47.024  18.434  98.497  0.00  0.00    +0.000 NA
ATOM     22  O   UNL     1      46.784  19.670  98.187  0.00  0.00    +0.000 OA
BRANCH  20  23
ATOM     23  C   UNL     1      48.775  16.844  97.732  0.00  0.00    +0.000 A 
ATOM     24  C   UNL     1      47.925  15.754  97.589  0.00  0.00    +0.000 A 
ATOM     25  C   UNL     1      48.345  14.483  97.960  0.00  0.00    +0.000 A 
ATOM     26  C   UNL     1      49.660  14.255  98.275  0.00  0.00    +0.000 A 
ATOM     27  C   UNL     1      50.588  15.256  98.039  0.00  0.00    +0.000 A 
ATOM     28  C   UNL     1      50.123  16.556  97.889  0.00  0.00    +0.000 A 
ATOM     29  C   UNL     1      52.034  14.975  98.308  0.00  0.00    +0.000 C 
ATOM     30  C   UNL     1      52.373  13.619  97.706  0.00  0.00    +0.000 C 
ATOM     31  C   UNL     1      51.520  12.584  98.356  0.00  0.00    +0.000 C 
ATOM     32  O   UNL     1      51.839  11.374  98.194  0.00  0.00    +0.000 OA
ATOM     33  N   UNL     1      50.154  12.947  98.581  0.00  0.00    +0.000 NA
ENDBRANCH  20  23
ENDBRANCH   5  18
TORSDOF 3
ENDMDL
MODEL 10
REMARK VINA RESULT:      -8.1      4.553      6.183
REMARK  Name = 
REMARK  3 active torsions:
REMARK  status: ('A' for Active; 'I' for Inactive)
REMARK    1  A    between atoms: C_9  and  C_10
REMARK    2  A    between atoms: C_14  and  C_15
REMARK    3  A    between atoms: C_17  and  C_18
REMARK                            x       y       z     vdW  Elec       q    Type
REMARK                         _______ _______ _______ _____ _____    ______ ____
ROOT
ATOM      1  C   UNL     1      45.909  32.486  98.181  0.00  0.00    +0.000 A 
ATOM      2  C   UNL     1      46.796  32.789  97.156  0.00  0.00    +0.000 A 
ATOM      3  C   UNL     1      47.210  31.816  96.255  0.00  0.00    +0.000 A 
ATOM      4  C   UNL     1      46.990  30.497  96.624  0.00  0.00    +0.000 A 
ATOM      5  C   UNL     1      46.533  30.157  97.891  0.00  0.00    +0.000 A 
ATOM      6  C   UNL     1      45.876  31.169  98.582  0.00  0.00    +0.000 A 
ENDROOT
BRANCH   1  15
ATOM      7  C   UNL     1      41.468  31.988 101.170  0.00  0.00    +0.000 C 
ATOM      8  N   UNL     1      42.176  33.253 101.167  0.00  0.00    +0.000 N 
ATOM      9  C   UNL     1      42.467  34.002 102.259  0.00  0.00    +0.000 A 
ATOM     10  O   UNL     1      42.200  33.717 103.599  0.00  0.00    +0.000 OA
ATOM     11  N   UNL     1      42.993  35.140 101.758  0.00  0.00    +0.000 NA
ATOM     12  C   UNL     1      43.560  34.804 100.578  0.00  0.00    +0.000 A 
ATOM     13  N   UNL     1      44.438  35.406  99.764  0.00  0.00    +0.000 NA
ATOM     14  C   UNL     1      45.083  34.745  98.771  0.00  0.00    +0.000 A 
ATOM     15  C   UNL     1      44.821  33.397  98.560  0.00  0.00    +0.000 A 
ATOM     16  C   UNL     1      43.685  32.903  99.168  0.00  0.00    +0.000 A 
ATOM     17  C   UNL     1      42.999  33.608 100.150  0.00  0.00    +0.000 A 
ENDBRANCH   1  15
BRANCH   5  18
ATOM     18  C   UNL     1      46.897  28.890  98.536  0.00  0.00    +0.000 A 
ATOM     19  N   UNL     1      47.623  28.693  99.657  0.00  0.00    +0.000 NA
ATOM     20  C   UNL     1      47.395  27.448 100.092  0.00  0.00    +0.000 A 
ATOM     21  N   UNL     1      46.271  27.045  99.451  0.00  0.00    +0.000 NA
ATOM     22  O   UNL     1      46.154  27.812  98.412  0.00  0.00    +0.000 OA
BRANCH  20  23
ATOM     23  C   UNL     1      48.187  26.592 100.969  0.00  0.00    +0.000 A 
ATOM     24  C   UNL     1      48.210  25.210 100.832  0.00  0.00    +0.000 A 
ATOM     25  C   UNL     1      48.332  24.396 101.951  0.00  0.00    +0.000 A 
ATOM     26  C   UNL     1      48.636  24.942 103.171  0.00  0.00    +0.000 A 
ATOM     27  C   UNL     1      49.001  26.276 103.236  0.00  0.00    +0.000 A 
ATOM     28  C   UNL     1      48.658  27.099 102.171  0.00  0.00    +0.000 A 
ATOM     29  C   UNL     1      49.410  26.848 104.558  0.00  0.00    +0.000 C 
ATOM     30  C   UNL     1      50.382  25.876 105.213  0.00  0.00    +0.000 C 
ATOM     31  C   UNL     1      49.688  24.572 105.412  0.00  0.00    +0.000 C 
ATOM     32  O   UNL     1      50.228  23.731 106.181  0.00  0.00    +0.000 OA
ATOM     33  N   UNL     1      48.854  24.135 104.333  0.00  0.00    +0.000 NA
ENDBRANCH  20  23
ENDBRANCH   5  18
TORSDOF 3
ENDMDL
